
     RDKit          3D

 74 76  0  0  0  0  0  0  0  0999 V2000
    7.9438   -1.7628    1.6641 C   0  0  0  0  0  0  0  0  0  0  0  0
    7.3325   -2.7439    0.6656 C   0  0  0  0  0  0  0  0  0  0  0  0
    5.8011   -2.6913    0.5581 C   0  0  0  0  0  0  0  0  0  0  0  0
    5.2581   -1.7295   -0.5007 C   0  0  0  0  0  0  0  0  0  0  0  0
    4.8616   -0.3278    0.0099 C   0  0  0  0  0  0  0  0  0  0  0  0
    5.9450    0.3826    0.8431 C   0  0  0  0  0  0  0  0  0  0  0  0
    7.3496    0.3418    0.2390 C   0  0  0  0  0  0  0  0  0  0  0  0
    8.3675   -0.4053    1.0977 C   0  0  0  0  0  0  0  0  0  0  0  0
    4.4792    0.4496   -1.1805 N   0  0  0  0  0  0  0  0  0  0  0  0
    3.5540    1.5610   -0.9066 C   0  0  0  0  0  0  0  0  0  0  0  0
    2.1463    1.0966   -0.4792 C   0  0  0  0  0  0  0  0  0  0  0  0
    1.7323   -0.0570   -0.6156 O   0  0  0  0  0  0  0  0  0  0  0  0
    1.3355    2.0690    0.0745 N   0  0  0  0  0  0  0  0  0  0  0  0
    1.6741    3.4526    0.3566 C   0  0  0  0  0  0  0  0  0  0  0  0
    0.3634    4.0919    0.7959 C   0  0  0  0  0  0  0  0  0  0  0  0
   -0.4240    2.9198    1.3806 C   0  0  0  0  0  0  0  0  0  0  0  0
   -0.0305    1.7560    0.4701 C   0  0  1  0  0  0  0  0  0  0  0  0
   -0.9700    1.6927   -0.7555 C   0  0  0  0  0  0  0  0  0  0  0  0
   -0.7540    2.2972   -1.8036 O   0  0  0  0  0  0  0  0  0  0  0  0
   -2.1294    0.9788   -0.5294 N   0  0  0  0  0  0  0  0  0  0  0  0
   -3.0680    0.7418   -1.6007 C   0  0  0  0  0  0  0  0  0  0  0  0
   -4.4525    0.5247   -1.0492 C   0  0  0  0  0  0  0  0  0  0  0  0
   -5.0154   -0.7610   -0.9895 C   0  0  0  0  0  0  0  0  0  0  0  0
   -6.3138   -0.9792   -0.4817 C   0  0  0  0  0  0  0  0  0  0  0  0
   -6.8703   -2.3939   -0.3975 C   0  0  0  0  0  0  0  0  0  0  0  0
   -6.0923   -3.2303    0.6251 C   0  0  0  0  0  0  0  0  0  0  0  0
   -6.8984   -3.0870   -1.7629 C   0  0  0  0  0  0  0  0  0  0  0  0
   -7.0287    0.1417   -0.0209 C   0  0  0  0  0  0  0  0  0  0  0  0
   -6.4658    1.4236   -0.0503 C   0  0  0  0  0  0  0  0  0  0  0  0
   -5.1862    1.6136   -0.5641 C   0  0  0  0  0  0  0  0  0  0  0  0
   -8.4151    0.0540    0.4989 C   0  0  0  0  0  0  0  0  0  0  0  0
   -9.4003   -0.3270   -0.2474 N   0  0  0  0  0  0  0  0  0  0  0  0
   -8.6723    0.3980    1.7894 N   0  0  0  0  0  0  0  0  0  0  0  0
    7.2745   -1.6298    2.5204 H   0  0  0  0  0  0  0  0  0  0  0  0
    8.8504   -2.2249    2.0782 H   0  0  0  0  0  0  0  0  0  0  0  0
    7.5801   -3.7491    1.0306 H   0  0  0  0  0  0  0  0  0  0  0  0
    7.8101   -2.6565   -0.3164 H   0  0  0  0  0  0  0  0  0  0  0  0
    5.3385   -2.5097    1.5354 H   0  0  0  0  0  0  0  0  0  0  0  0
    5.4799   -3.6983    0.2581 H   0  0  0  0  0  0  0  0  0  0  0  0
    4.3488   -2.1858   -0.9188 H   0  0  0  0  0  0  0  0  0  0  0  0
    5.9576   -1.6702   -1.3426 H   0  0  0  0  0  0  0  0  0  0  0  0
    3.9889   -0.4635    0.6597 H   0  0  0  0  0  0  0  0  0  0  0  0
    5.6675    1.4341    0.9894 H   0  0  0  0  0  0  0  0  0  0  0  0
    5.9365   -0.0299    1.8571 H   0  0  0  0  0  0  0  0  0  0  0  0
    7.3501   -0.0790   -0.7719 H   0  0  0  0  0  0  0  0  0  0  0  0
    7.7092    1.3734    0.1163 H   0  0  0  0  0  0  0  0  0  0  0  0
    9.2807   -0.5364    0.5050 H   0  0  0  0  0  0  0  0  0  0  0  0
    8.6518    0.2347    1.9422 H   0  0  0  0  0  0  0  0  0  0  0  0
    5.3111    0.8034   -1.6477 H   0  0  0  0  0  0  0  0  0  0  0  0
    3.4252    2.1300   -1.8354 H   0  0  0  0  0  0  0  0  0  0  0  0
    3.9783    2.2340   -0.1573 H   0  0  0  0  0  0  0  0  0  0  0  0
    2.4064    3.4592    1.1710 H   0  0  0  0  0  0  0  0  0  0  0  0
    2.1093    3.9359   -0.5213 H   0  0  0  0  0  0  0  0  0  0  0  0
   -0.1649    4.4999   -0.0730 H   0  0  0  0  0  0  0  0  0  0  0  0
    0.5119    4.9041    1.5122 H   0  0  0  0  0  0  0  0  0  0  0  0
   -0.0788    2.7260    2.4040 H   0  0  0  0  0  0  0  0  0  0  0  0
   -1.4993    3.1187    1.4108 H   0  0  0  0  0  0  0  0  0  0  0  0
   -0.0600    0.7966    0.9988 H   0  0  0  0  0  0  0  0  0  0  0  0
   -2.1606    0.3435    0.2580 H   0  0  0  0  0  0  0  0  0  0  0  0
   -3.0731    1.5809   -2.3055 H   0  0  0  0  0  0  0  0  0  0  0  0
   -2.7204   -0.1384   -2.1534 H   0  0  0  0  0  0  0  0  0  0  0  0
   -4.4301   -1.6042   -1.3516 H   0  0  0  0  0  0  0  0  0  0  0  0
   -7.9053   -2.3696   -0.0448 H   0  0  0  0  0  0  0  0  0  0  0  0
   -6.5570   -4.2161    0.7472 H   0  0  0  0  0  0  0  0  0  0  0  0
   -5.0485   -3.3843    0.3273 H   0  0  0  0  0  0  0  0  0  0  0  0
   -6.0929   -2.7403    1.6066 H   0  0  0  0  0  0  0  0  0  0  0  0
   -7.4420   -2.4821   -2.4967 H   0  0  0  0  0  0  0  0  0  0  0  0
   -5.8911   -3.2681   -2.1536 H   0  0  0  0  0  0  0  0  0  0  0  0
   -7.4016   -4.0575   -1.6905 H   0  0  0  0  0  0  0  0  0  0  0  0
   -7.0335    2.2770    0.3107 H   0  0  0  0  0  0  0  0  0  0  0  0
   -4.7627    2.6167   -0.5956 H   0  0  0  0  0  0  0  0  0  0  0  0
   -9.0692   -0.5246   -1.1986 H   0  0  0  0  0  0  0  0  0  0  0  0
   -7.9433    0.1931    2.4597 H   0  0  0  0  0  0  0  0  0  0  0  0
   -9.5898    0.0660    2.0767 H   0  0  0  0  0  0  0  0  0  0  0  0
  1  2  1  0
  2  3  1  0
  3  4  1  0
  4  5  1  0
  5  6  1  0
  6  7  1  0
  7  8  1  0
  5  9  1  0
  9 10  1  0
 10 11  1  0
 11 12  2  0
 11 13  1  0
 13 14  1  0
 14 15  1  0
 15 16  1  0
 16 17  1  0
 17 18  1  0
 18 19  2  0
 18 20  1  0
 20 21  1  0
 21 22  1  0
 22 23  2  0
 23 24  1  0
 24 25  1  0
 25 26  1  0
 25 27  1  0
 24 28  2  0
 28 29  1  0
 29 30  2  0
 28 31  1  0
 31 32  2  3
 31 33  1  0
  8  1  1  0
 17 13  1  0
 30 22  1  0
  1 34  1  0
  1 35  1  0
  2 36  1  0
  2 37  1  0
  3 38  1  0
  3 39  1  0
  4 40  1  0
  4 41  1  0
  5 42  1  0
  6 43  1  0
  6 44  1  0
  7 45  1  0
  7 46  1  0
  8 47  1  0
  8 48  1  0
  9 49  1  0
 10 50  1  0
 10 51  1  0
 14 52  1  0
 14 53  1  0
 15 54  1  0
 15 55  1  0
 16 56  1  0
 16 57  1  0
 17 58  1  1
 20 59  1  0
 21 60  1  0
 21 61  1  0
 23 62  1  0
 25 63  1  0
 26 64  1  0
 26 65  1  0
 26 66  1  0
 27 67  1  0
 27 68  1  0
 27 69  1  0
 29 70  1  0
 30 71  1  0
 32 72  1  0
 33 73  1  0
 33 74  1  0
M  END

