
     RDKit          3D

 68 70  0  0  0  0  0  0  0  0999 V2000
   -6.4940    0.6155   -1.7198 C   0  0  0  0  0  0  0  0  0  0  0  0
   -5.4390    0.2172   -2.7556 C   0  0  0  0  0  0  0  0  0  0  0  0
   -5.0408   -1.2609   -2.7196 C   0  0  0  0  0  0  0  0  0  0  0  0
   -3.6569   -1.5519   -2.1434 C   0  0  0  0  0  0  0  0  0  0  0  0
   -3.5980   -1.7163   -0.6168 C   0  0  0  0  0  0  0  0  0  0  0  0
   -3.8816   -0.4398    0.1850 C   0  0  0  0  0  0  0  0  0  0  0  0
   -5.3655   -0.1710    0.4463 C   0  0  0  0  0  0  0  0  0  0  0  0
   -5.9473    0.9922   -0.3461 C   0  0  0  0  0  0  0  0  0  0  0  0
   -2.3353   -2.3641   -0.2167 N   0  0  0  0  0  0  0  0  0  0  0  0
   -1.0536   -1.7417   -0.5498 C   0  0  0  0  0  0  0  0  0  0  0  0
   -0.7394   -0.3989    0.1177 C   0  0  0  0  0  0  0  0  0  0  0  0
   -0.5983    0.6203   -0.5663 O   0  0  0  0  0  0  0  0  0  0  0  0
   -0.5286   -0.3683    1.4773 N   0  0  0  0  0  0  0  0  0  0  0  0
   -0.7261   -1.4357    2.4402 C   0  0  0  0  0  0  0  0  0  0  0  0
   -0.3368   -0.8469    3.7929 C   0  0  0  0  0  0  0  0  0  0  0  0
   -0.4287    0.6663    3.5686 C   0  0  0  0  0  0  0  0  0  0  0  0
    0.0023    0.8258    2.1132 C   0  0  1  0  0  0  0  0  0  0  0  0
    1.5549    0.8396    2.0467 C   0  0  0  0  0  0  0  0  0  0  0  0
    2.2230   -0.1538    2.3446 O   0  0  0  0  0  0  0  0  0  0  0  0
    2.1197    2.0528    1.7172 N   0  0  0  0  0  0  0  0  0  0  0  0
    3.5401    2.3019    1.8261 C   0  0  0  0  0  0  0  0  0  0  0  0
    4.3508    1.7988    0.6592 C   0  0  0  0  0  0  0  0  0  0  0  0
    4.7816    0.4588    0.6314 C   0  0  0  0  0  0  0  0  0  0  0  0
    5.5559   -0.0418   -0.4249 C   0  0  0  0  0  0  0  0  0  0  0  0
    5.9846   -1.4784   -0.3957 C   0  0  0  0  0  0  0  0  0  0  0  0
    5.9292    0.8412   -1.4470 C   0  0  0  0  0  0  0  0  0  0  0  0
    5.5100    2.1719   -1.4444 C   0  0  0  0  0  0  0  0  0  0  0  0
    4.7067    2.6475   -0.3982 C   0  0  0  0  0  0  0  0  0  0  0  0
    6.8043    0.3949   -2.5501 C   0  0  0  0  0  0  0  0  0  0  0  0
    8.0808    0.2410   -2.3755 N   0  0  0  0  0  0  0  0  0  0  0  0
    6.2713    0.1411   -3.7689 N   0  0  0  0  0  0  0  0  0  0  0  0
   -7.0066    1.5031   -2.1033 H   0  0  0  0  0  0  0  0  0  0  0  0
   -7.2619   -0.1583   -1.6220 H   0  0  0  0  0  0  0  0  0  0  0  0
   -5.8972    0.4003   -3.7435 H   0  0  0  0  0  0  0  0  0  0  0  0
   -4.5627    0.8702   -2.6914 H   0  0  0  0  0  0  0  0  0  0  0  0
   -5.8122   -1.8800   -2.2548 H   0  0  0  0  0  0  0  0  0  0  0  0
   -5.0078   -1.5941   -3.7691 H   0  0  0  0  0  0  0  0  0  0  0  0
   -3.3382   -2.5032   -2.5896 H   0  0  0  0  0  0  0  0  0  0  0  0
   -2.9427   -0.7959   -2.4866 H   0  0  0  0  0  0  0  0  0  0  0  0
   -4.3611   -2.4548   -0.3523 H   0  0  0  0  0  0  0  0  0  0  0  0
   -3.4187   -0.5383    1.1773 H   0  0  0  0  0  0  0  0  0  0  0  0
   -3.4117    0.4313   -0.2952 H   0  0  0  0  0  0  0  0  0  0  0  0
   -5.9767   -1.0764    0.3460 H   0  0  0  0  0  0  0  0  0  0  0  0
   -5.4382    0.1205    1.5062 H   0  0  0  0  0  0  0  0  0  0  0  0
   -5.2195    1.8083   -0.4284 H   0  0  0  0  0  0  0  0  0  0  0  0
   -6.7840    1.3991    0.2426 H   0  0  0  0  0  0  0  0  0  0  0  0
   -2.3771   -2.6990    0.7450 H   0  0  0  0  0  0  0  0  0  0  0  0
   -0.9608   -1.6181   -1.6344 H   0  0  0  0  0  0  0  0  0  0  0  0
   -0.2509   -2.4383   -0.2776 H   0  0  0  0  0  0  0  0  0  0  0  0
   -1.7827   -1.7133    2.4547 H   0  0  0  0  0  0  0  0  0  0  0  0
   -0.1185   -2.3053    2.1678 H   0  0  0  0  0  0  0  0  0  0  0  0
    0.6875   -1.1382    4.0564 H   0  0  0  0  0  0  0  0  0  0  0  0
   -1.0002   -1.1896    4.5940 H   0  0  0  0  0  0  0  0  0  0  0  0
    0.1945    1.2150    4.2794 H   0  0  0  0  0  0  0  0  0  0  0  0
   -1.4681    0.9766    3.7195 H   0  0  0  0  0  0  0  0  0  0  0  0
   -0.4000    1.7345    1.6492 H   0  0  0  0  0  0  0  0  0  0  0  0
    1.5310    2.8269    1.4276 H   0  0  0  0  0  0  0  0  0  0  0  0
    3.6615    3.3826    1.9172 H   0  0  0  0  0  0  0  0  0  0  0  0
    3.9015    1.8525    2.7607 H   0  0  0  0  0  0  0  0  0  0  0  0
    4.4993   -0.2065    1.4465 H   0  0  0  0  0  0  0  0  0  0  0  0
    6.9506   -1.5735    0.1057 H   0  0  0  0  0  0  0  0  0  0  0  0
    6.0591   -1.8897   -1.4088 H   0  0  0  0  0  0  0  0  0  0  0  0
    5.2510   -2.0929    0.1343 H   0  0  0  0  0  0  0  0  0  0  0  0
    5.8074    2.8472   -2.2494 H   0  0  0  0  0  0  0  0  0  0  0  0
    4.4093    3.6888   -0.3948 H   0  0  0  0  0  0  0  0  0  0  0  0
    8.3245    0.4816   -1.4068 H   0  0  0  0  0  0  0  0  0  0  0  0
    6.9422    0.0542   -4.5259 H   0  0  0  0  0  0  0  0  0  0  0  0
    5.3320    0.4154   -4.0059 H   0  0  0  0  0  0  0  0  0  0  0  0
  1  2  1  0
  2  3  1  0
  3  4  1  0
  4  5  1  0
  5  6  1  0
  6  7  1  0
  7  8  1  0
  5  9  1  0
  9 10  1  0
 10 11  1  0
 11 12  2  0
 11 13  1  0
 13 14  1  0
 14 15  1  0
 15 16  1  0
 16 17  1  0
 17 18  1  0
 18 19  2  0
 18 20  1  0
 20 21  1  0
 21 22  1  0
 22 23  2  0
 23 24  1  0
 24 25  1  0
 24 26  2  0
 26 27  1  0
 27 28  2  0
 26 29  1  0
 29 30  2  3
 29 31  1  0
  8  1  1  0
 17 13  1  0
 28 22  1  0
  1 32  1  0
  1 33  1  0
  2 34  1  0
  2 35  1  0
  3 36  1  0
  3 37  1  0
  4 38  1  0
  4 39  1  0
  5 40  1  0
  6 41  1  0
  6 42  1  0
  7 43  1  0
  7 44  1  0
  8 45  1  0
  8 46  1  0
  9 47  1  0
 10 48  1  0
 10 49  1  0
 14 50  1  0
 14 51  1  0
 15 52  1  0
 15 53  1  0
 16 54  1  0
 16 55  1  0
 17 56  1  6
 20 57  1  0
 21 58  1  0
 21 59  1  0
 23 60  1  0
 25 61  1  0
 25 62  1  0
 25 63  1  0
 27 64  1  0
 28 65  1  0
 30 66  1  0
 31 67  1  0
 31 68  1  0
M  END

